13Bus/Script Window 3.dss
clear 
Set DefaultBaseFrequency=60

!
! This script is based on a script developed by Tennessee Tech Univ students
! Tyler Patton, Jon Wood, and David Woods, April 2009
!

new circuit.IEEE13Nodeckt 
~ basekv=115 pu=1.0001 phases=3 bus1=SourceBus  
~ Angle=30                                                         ! advance angle 30 deg so result agree with published angle
~ MVAsc3=20000 MVASC1=21000    ! stiffen the source to approximate inf source
//////////////////////////////////////////////////////////////////////////////////////////////////////////////////
//Main PV SYSTEM detail
// P-T curve is per unit of rated Pmpp vs temperature // This one is for a Pmpp stated at 25 deg 
New XYCurve.MyPvsT npts=4  xarray=[0  25  75  100]  yarray=[1.2 1.0 0.8  0.6]  
 
// efficiency curve is per unit eff vs per unit power 
New XYCurve.MyEff npts=4  xarray=[.1  .2  .4  1.0]  yarray=[.86  .9  .93  .97]   
 
// per unit irradiance curve (per unit if "irradiance" property) 
New Loadshape.MyIrrad npts=24 interval=1 mult=[0 0 0 0 0 0 .1 .2 .3  .5  .8  .9  1.0  1.0  .99  .9  .7  .4  .1 0  0  0  0  0] 
 
// 24-hr temp shape curve 
New Tshape.MyTemp npts=24 interval=1 temp=[25, 25, 25, 25, 25, 25, 25, 25, 35, 40, 45, 50  60 60  55 40  35  30  25 25 25 25 25 25] 
 

/////////////////////////////////////////////////////////////////////////////////////////////////////////////////
!SUB TRANSFORMER DEFINITION 
! Although this data was given, it does not appear to be used in the test case results
! The published test case starts at 1.0 per unit at Bus 650. To make this happen, we will change the impedance
! on the transformer to something tiny by dividing by 1000 using the DSS in-line RPN math
New Transformer.Sub Phases=3 Windings=2   XHL=(8 1000 /)
~ wdg=1 bus=SourceBus   conn=delta  kv=115  kva=5000   %r=(.5 1000 /) 
~ wdg=2 bus=650             conn=wye    kv=4.16  kva=5000   %r=(.5 1000 /)  

! FEEDER 1-PHASE VOLTAGE REGULATORS
! Define low-impedance 2-wdg transformer

New Transformer.Reg1 phases=1 bank=reg1 XHL=0.01 kVAs=[1666 1666]
~ Buses=[650.1 RG60.1] kVs=[2.4  2.4] %LoadLoss=0.01
new regcontrol.Reg1  transformer=Reg1 winding=2  vreg=122  band=2  ptratio=20 ctprim=700  R=3   X=9 

New Transformer.Reg2 phases=1 bank=reg1 XHL=0.01 kVAs=[1666 1666]
~ Buses=[650.2 RG60.2] kVs=[2.4  2.4] %LoadLoss=0.01
new regcontrol.Reg2  transformer=Reg2 winding=2  vreg=122  band=2  ptratio=20 ctprim=700  R=3   X=9 

New Transformer.Reg3 phases=1 bank=reg1 XHL=0.01 kVAs=[1666 1666]
~ Buses=[650.3 RG60.3] kVs=[2.4  2.4] %LoadLoss=0.01
new regcontrol.Reg3  transformer=Reg3 winding=2  vreg=122  band=2  ptratio=20 ctprim=700  R=3   X=9 


!TRANSFORMER DEFINITION 
//Remove transforme beween 633 and 634 by Emad
//New Transformer.XFM1  Phases=3   Windings=2  XHL=2
//~ wdg=1 bus=633       conn=Wye kv=4.16    kva=500    %r=.55     XHT=1
//~ wdg=2 bus=634       conn=Wye kv=0.480    kva=500    %r=.55   XLT=1
/////////////////////////////////////////////////////////////////////////////////////////////////////////////
//Added by Emad
//Node 634 phase a
New Transformer.634-a-1  Phases=1   Windings=2  XHL=2
~ wdg=1 bus=634.1       conn=Wye kv=4.16    kva=500    %r=.55     XHT=1
~ wdg=2 bus=634-1'.1       conn=Wye kv=0.480    kva=500    %r=.55   XLT=1

New Transformer.634-a-2  Phases=1   Windings=2  XHL=2
~ wdg=1 bus=634-2.1       conn=Wye kv=4.16    kva=500    %r=.55     XHT=1
~ wdg=2 bus=634-2'.1       conn=Wye kv=0.480    kva=500    %r=.55   XLT=1

New Transformer.634-a-3  Phases=1   Windings=2  XHL=2
~ wdg=1 bus=634-3.1       conn=Wye kv=4.16    kva=500    %r=.55     XHT=1
~ wdg=2 bus=634-3'.1       conn=Wye kv=0.480    kva=500    %r=.55   XLT=1
 

New Transformer.634-a-4  Phases=1   Windings=2  XHL=2
~ wdg=1 bus=634-4.1       conn=Wye kv=4.16    kva=500    %r=.55     XHT=1
~ wdg=2 bus=634-4'.1       conn=Wye kv=0.480    kva=500    %r=.55   XLT=1


New Transformer.634-a-5  Phases=1   Windings=2  XHL=2
~ wdg=1 bus=634-5.1       conn=Wye kv=4.16    kva=500    %r=.55     XHT=1
~ wdg=2 bus=634-5'.1       conn=Wye kv=0.480    kva=500    %r=.55   XLT=1


New Transformer.634-a-6  Phases=1   Windings=2  XHL=2
~ wdg=1 bus=634-6.1       conn=Wye kv=4.16    kva=500    %r=.55     XHT=1
~ wdg=2 bus=634-6'.1       conn=Wye kv=0.480    kva=500    %r=.55   XLT=1

// Phase B of node 634

New Transformer.634-b-1  Phases=1   Windings=2  XHL=2
~ wdg=1 bus=634.2       conn=Wye kv=4.16    kva=500    %r=.55     XHT=1
~ wdg=2 bus=634-1'.2       conn=Wye kv=0.480    kva=500    %r=.55   XLT=1

New Transformer.634-b-2  Phases=1   Windings=2  XHL=2
~ wdg=1 bus=634-2.2       conn=Wye kv=4.16    kva=500    %r=.55     XHT=1
~ wdg=2 bus=634-2'.2       conn=Wye kv=0.480    kva=500    %r=.55   XLT=1

New Transformer.634-b-3  Phases=1   Windings=2  XHL=2
~ wdg=1 bus=634-3.2       conn=Wye kv=4.16    kva=500    %r=.55     XHT=1
~ wdg=2 bus=634-3'.2       conn=Wye kv=0.480    kva=500    %r=.55   XLT=1
 

New Transformer.634-b-4  Phases=1   Windings=2  XHL=2
~ wdg=1 bus=634-4.2      conn=Wye kv=4.16    kva=500    %r=.55     XHT=1
~ wdg=2 bus=634-4'.2       conn=Wye kv=0.480    kva=500    %r=.55   XLT=1


New Transformer.634-b-5  Phases=1   Windings=2  XHL=2
~ wdg=1 bus=634-5.2       conn=Wye kv=4.16    kva=500    %r=.55     XHT=1
~ wdg=2 bus=634-5'.2      conn=Wye kv=0.480    kva=500    %r=.55   XLT=1


New Transformer.634-b-6  Phases=1   Windings=2  XHL=2
~ wdg=1 bus=634-6.2     conn=Wye kv=4.16    kva=500    %r=.55     XHT=1
~ wdg=2 bus=634-6'.2      conn=Wye kv=0.480    kva=500    %r=.55   XLT=1

// Phase c of node 634

New Transformer.634-c-1  Phases=1   Windings=2  XHL=2
~ wdg=1 bus=634.3       conn=Wye kv=4.16    kva=500    %r=.55     XHT=1
~ wdg=2 bus=634-1'.3       conn=Wye kv=0.480    kva=500    %r=.55   XLT=1

New Transformer.634-c-2  Phases=1   Windings=2  XHL=2
~ wdg=1 bus=634-2.3      conn=Wye kv=4.16    kva=500    %r=.55     XHT=1
~ wdg=2 bus=634-2'.3       conn=Wye kv=0.480    kva=500    %r=.55   XLT=1

New Transformer.634-c-3  Phases=1   Windings=2  XHL=2
~ wdg=1 bus=634-3.3       conn=Wye kv=4.16    kva=500    %r=.55     XHT=1
~ wdg=2 bus=634-3'.3       conn=Wye kv=0.480    kva=500    %r=.55   XLT=1
 

New Transformer.634-c-4  Phases=1   Windings=2  XHL=2
~ wdg=1 bus=634-4.3      conn=Wye kv=4.16    kva=500    %r=.55     XHT=1
~ wdg=2 bus=634-4'.3       conn=Wye kv=0.480    kva=500    %r=.55   XLT=1


New Transformer.634-c-5  Phases=1   Windings=2  XHL=2
~ wdg=1 bus=634-5.3       conn=Wye kv=4.16    kva=500    %r=.55     XHT=1
~ wdg=2 bus=634-5'.3      conn=Wye kv=0.480    kva=500    %r=.55   XLT=1


New Transformer.634-c-6  Phases=1   Windings=2  XHL=2
~ wdg=1 bus=634-6.3     conn=Wye kv=4.16    kva=500    %r=.55     XHT=1
~ wdg=2 bus=634-6'.3      conn=Wye kv=0.480    kva=500    %r=.55   XLT=1
///////////////////////////////////////////////////////////////////////////////////////////////////////////////////
//Node 633 phase a
New Transformer.633-a-1  Phases=1   Windings=2  XHL=2
~ wdg=1 bus=633.1       conn=Wye kv=4.16    kva=500    %r=.55     XHT=1
~ wdg=2 bus=633-1'.1       conn=Wye kv=0.480    kva=500    %r=.55   XLT=1

New Transformer.633-a-2  Phases=1   Windings=2  XHL=2
~ wdg=1 bus=633-2.1       conn=Wye kv=4.16    kva=500    %r=.55     XHT=1
~ wdg=2 bus=633-2'.1       conn=Wye kv=0.480    kva=500    %r=.55   XLT=1

New Transformer.633-a-3  Phases=1   Windings=2  XHL=2
~ wdg=1 bus=633-3.1       conn=Wye kv=4.16    kva=500    %r=.55     XHT=1
~ wdg=2 bus=633-3'.1       conn=Wye kv=0.480    kva=500    %r=.55   XLT=1
 

New Transformer.633-a-4  Phases=1   Windings=2  XHL=2
~ wdg=1 bus=633-4.1       conn=Wye kv=4.16    kva=500    %r=.55     XHT=1
~ wdg=2 bus=633-4'.1       conn=Wye kv=0.480    kva=500    %r=.55   XLT=1


New Transformer.633-a-5  Phases=1   Windings=2  XHL=2
~ wdg=1 bus=633-5.1       conn=Wye kv=4.16    kva=500    %r=.55     XHT=1
~ wdg=2 bus=633-5'.1       conn=Wye kv=0.480    kva=500    %r=.55   XLT=1


New Transformer.633-a-6  Phases=1   Windings=2  XHL=2
~ wdg=1 bus=633-6.1       conn=Wye kv=4.16    kva=500    %r=.55     XHT=1
~ wdg=2 bus=633-6'.1       conn=Wye kv=0.480    kva=500    %r=.55   XLT=1

New Transformer.633-a-7  Phases=1   Windings=2  XHL=2
~ wdg=1 bus=633-7.1   conn=Wye kv=4.16    kva=500    %r=.55     XHT=1
~ wdg=2 bus=633-7'.1      conn=Wye kv=0.480    kva=500    %r=.55   XLT=1

New Transformer.633-a-8  Phases=1   Windings=2  XHL=2
~ wdg=1 bus=633-8.1     conn=Wye kv=4.16    kva=500    %r=.55     XHT=1
~ wdg=2 bus=633-8'.1      conn=Wye kv=0.480    kva=500    %r=.55   XLT=1

// Phase B of node 633

New Transformer.633-b-1  Phases=1   Windings=2  XHL=2
~ wdg=1 bus=633.2       conn=Wye kv=4.16    kva=500    %r=.55     XHT=1
~ wdg=2 bus=633-1'.2       conn=Wye kv=0.480    kva=500    %r=.55   XLT=1

New Transformer.633-b-2  Phases=1   Windings=2  XHL=2
~ wdg=1 bus=633-2.2       conn=Wye kv=4.16    kva=500    %r=.55     XHT=1
~ wdg=2 bus=633-2'.2       conn=Wye kv=0.480    kva=500    %r=.55   XLT=1

New Transformer.633-b-3  Phases=1   Windings=2  XHL=2
~ wdg=1 bus=633-3.2       conn=Wye kv=4.16    kva=500    %r=.55     XHT=1
~ wdg=2 bus=633-3'.2       conn=Wye kv=0.480    kva=500    %r=.55   XLT=1
 

New Transformer.633-b-4  Phases=1   Windings=2  XHL=2
~ wdg=1 bus=633-4.2      conn=Wye kv=4.16    kva=500    %r=.55     XHT=1
~ wdg=2 bus=633-4'.2       conn=Wye kv=0.480    kva=500    %r=.55   XLT=1


New Transformer.633-b-5  Phases=1   Windings=2  XHL=2
~ wdg=1 bus=633-5.2       conn=Wye kv=4.16    kva=500    %r=.55     XHT=1
~ wdg=2 bus=633-5'.2      conn=Wye kv=0.480    kva=500    %r=.55   XLT=1


New Transformer.633-b-6  Phases=1   Windings=2  XHL=2
~ wdg=1 bus=633-6.2     conn=Wye kv=4.16    kva=500    %r=.55     XHT=1
~ wdg=2 bus=633-6'.2      conn=Wye kv=0.480    kva=500    %r=.55   XLT=1

New Transformer.633-b-7  Phases=1   Windings=2  XHL=2
~ wdg=1 bus=633-7.2    conn=Wye kv=4.16    kva=500    %r=.55     XHT=1
~ wdg=2 bus=633-7'.2      conn=Wye kv=0.480    kva=500    %r=.55   XLT=1

New Transformer.633-b-8  Phases=1   Windings=2  XHL=2
~ wdg=1 bus=633-8.2     conn=Wye kv=4.16    kva=500    %r=.55     XHT=1
~ wdg=2 bus=633-8'.2      conn=Wye kv=0.480    kva=500    %r=.55   XLT=1

// Phase c of node 633

New Transformer.633-c-1  Phases=1   Windings=2  XHL=2
~ wdg=1 bus=633.3       conn=Wye kv=4.16    kva=500    %r=.55     XHT=1
~ wdg=2 bus=633-1'.3       conn=Wye kv=0.480    kva=500    %r=.55   XLT=1

New Transformer.633-c-2  Phases=1   Windings=2  XHL=2
~ wdg=1 bus=633-2.3      conn=Wye kv=4.16    kva=500    %r=.55     XHT=1
~ wdg=2 bus=633-2'.3       conn=Wye kv=0.480    kva=500    %r=.55   XLT=1

New Transformer.633-c-3  Phases=1   Windings=2  XHL=2
~ wdg=1 bus=633-3.3       conn=Wye kv=4.16    kva=500    %r=.55     XHT=1
~ wdg=2 bus=633-3'.3       conn=Wye kv=0.480    kva=500    %r=.55   XLT=1
 

New Transformer.633-c-4  Phases=1   Windings=2  XHL=2
~ wdg=1 bus=633-4.3      conn=Wye kv=4.16    kva=500    %r=.55     XHT=1
~ wdg=2 bus=633-4'.3       conn=Wye kv=0.480    kva=500    %r=.55   XLT=1


New Transformer.633-c-5  Phases=1   Windings=2  XHL=2
~ wdg=1 bus=633-5.3       conn=Wye kv=4.16    kva=500    %r=.55     XHT=1
~ wdg=2 bus=633-5'.3      conn=Wye kv=0.480    kva=500    %r=.55   XLT=1


New Transformer.633-c-6  Phases=1   Windings=2  XHL=2
~ wdg=1 bus=633-6.3     conn=Wye kv=4.16    kva=500    %r=.55     XHT=1
~ wdg=2 bus=633-6'.3      conn=Wye kv=0.480    kva=500    %r=.55   XLT=1

New Transformer.633-c-7  Phases=1   Windings=2  XHL=2
~ wdg=1 bus=633-7.3     conn=Wye kv=4.16    kva=500    %r=.55     XHT=1
~ wdg=2 bus=633-7'.3      conn=Wye kv=0.480    kva=500    %r=.55   XLT=1

New Transformer.633-c-8  Phases=1   Windings=2  XHL=2
~ wdg=1 bus=633-8.3     conn=Wye kv=4.16    kva=500    %r=.55     XHT=1
~ wdg=2 bus=633-8'.3      conn=Wye kv=0.480    kva=500    %r=.55   XLT=1
//////////////////////////////////////////////////////////////////////////////////////////////////////////////////////////////////
// Phase c of node 611

New Transformer.611-c-1  Phases=1   Windings=2  XHL=2
~ wdg=1 bus=611.3       conn=Wye kv=4.16    kva=500    %r=.55     XHT=1
~ wdg=2 bus=611-1'.3       conn=Wye kv=0.480    kva=500    %r=.55   XLT=1

New Transformer.611-c-2  Phases=1   Windings=2  XHL=2
~ wdg=1 bus=611-2.3      conn=Wye kv=4.16    kva=500    %r=.55     XHT=1
~ wdg=2 bus=611-2'.3       conn=Wye kv=0.480    kva=500    %r=.55   XLT=1

New Transformer.611-c-3  Phases=1   Windings=2  XHL=2
~ wdg=1 bus=611-3.3       conn=Wye kv=4.16    kva=500    %r=.55     XHT=1
~ wdg=2 bus=611-3'.3       conn=Wye kv=0.480    kva=500    %r=.55   XLT=1
 

New Transformer.611-c-4  Phases=1   Windings=2  XHL=2
~ wdg=1 bus=611-4.3      conn=Wye kv=4.16    kva=500    %r=.55     XHT=1
~ wdg=2 bus=611-4'.3       conn=Wye kv=0.480    kva=500    %r=.55   XLT=1


New Transformer.611-c-5  Phases=1   Windings=2  XHL=2
~ wdg=1 bus=611-5.3       conn=Wye kv=4.16    kva=500    %r=.55     XHT=1
~ wdg=2 bus=611-5'.3      conn=Wye kv=0.480    kva=500    %r=.55   XLT=1


New Transformer.611-c-6  Phases=1   Windings=2  XHL=2
~ wdg=1 bus=611-6.3     conn=Wye kv=4.16    kva=500    %r=.55     XHT=1
~ wdg=2 bus=611-6'.3      conn=Wye kv=0.480    kva=500    %r=.55   XLT=1

New Transformer.611-c-7  Phases=1   Windings=2  XHL=2
~ wdg=1 bus=611-7.3     conn=Wye kv=4.16    kva=500    %r=.55     XHT=1
~ wdg=2 bus=611-7'.3      conn=Wye kv=0.480    kva=500    %r=.55   XLT=1

New Transformer.611-c-8  Phases=1   Windings=2  XHL=2
~ wdg=1 bus=611-8.3     conn=Wye kv=4.16    kva=500    %r=.55     XHT=1
~ wdg=2 bus=611-8'.3      conn=Wye kv=0.480    kva=500    %r=.55   XLT=1
///////////////////////////////////////////////////////////////////////////////////////////////////////////////////////////////////////////////////////
//Node 652 phase a
New Transformer.652-a-1  Phases=1   Windings=2  XHL=2
~ wdg=1 bus=652.1       conn=Wye kv=4.16    kva=500    %r=.55     XHT=1
~ wdg=2 bus=652-1'.1       conn=Wye kv=0.480    kva=500    %r=.55   XLT=1

New Transformer.652-a-2  Phases=1   Windings=2  XHL=2
~ wdg=1 bus=652-2.1       conn=Wye kv=4.16    kva=500    %r=.55     XHT=1
~ wdg=2 bus=652-2'.1       conn=Wye kv=0.480    kva=500    %r=.55   XLT=1

New Transformer.652-a-3  Phases=1   Windings=2  XHL=2
~ wdg=1 bus=652-3.1       conn=Wye kv=4.16    kva=500    %r=.55     XHT=1
~ wdg=2 bus=652-3'.1       conn=Wye kv=0.480    kva=500    %r=.55   XLT=1
 

New Transformer.652-a-4  Phases=1   Windings=2  XHL=2
~ wdg=1 bus=652-4.1       conn=Wye kv=4.16    kva=500    %r=.55     XHT=1
~ wdg=2 bus=652-4'.1       conn=Wye kv=0.480    kva=500    %r=.55   XLT=1


New Transformer.652-a-5  Phases=1   Windings=2  XHL=2
~ wdg=1 bus=652-5.1       conn=Wye kv=4.16    kva=500    %r=.55     XHT=1
~ wdg=2 bus=652-5'.1       conn=Wye kv=0.480    kva=500    %r=.55   XLT=1


New Transformer.652-a-6  Phases=1   Windings=2  XHL=2
~ wdg=1 bus=652-6.1       conn=Wye kv=4.16    kva=500    %r=.55     XHT=1
~ wdg=2 bus=652-6'.1       conn=Wye kv=0.480    kva=500    %r=.55   XLT=1

New Transformer.652-a-7  Phases=1   Windings=2  XHL=2
~ wdg=1 bus=652-7.1   conn=Wye kv=4.16    kva=500    %r=.55     XHT=1
~ wdg=2 bus=652-7'.1      conn=Wye kv=0.480    kva=500    %r=.55   XLT=1

New Transformer.652-a-8  Phases=1   Windings=2  XHL=2
~ wdg=1 bus=652-8.1     conn=Wye kv=4.16    kva=500    %r=.55     XHT=1
~ wdg=2 bus=652-8'.1      conn=Wye kv=0.480    kva=500    %r=.55   XLT=1
////////////////////////////////////////////////////////////////////////////////////////////////////////////////////////////////////////

!LINE CODES
redirect IEEELineCodes.dss

// these are local matrix line codes
// corrected 9-14-2011
New linecode.mtx601 nphases=3 BaseFreq=60 
~ rmatrix = (0.3465 | 0.1560 0.3375 | 0.1580 0.1535 0.3414 ) 
~ xmatrix = (1.0179 | 0.5017 1.0478 | 0.4236 0.3849 1.0348 ) 
~ units=mi 
New linecode.mtx602 nphases=3 BaseFreq=60 
~ rmatrix = (0.7526 | 0.1580 0.7475 | 0.1560 0.1535 0.7436 ) 
~ xmatrix = (1.1814 | 0.4236 1.1983 | 0.5017 0.3849 1.2112 ) 
~ units=mi 
New linecode.mtx603 nphases=2 BaseFreq=60 
~ rmatrix = (1.3238 | 0.2066 1.3294 ) 
~ xmatrix = (1.3569 | 0.4591 1.3471 ) 
~ units=mi 
New linecode.mtx604 nphases=2 BaseFreq=60 
~ rmatrix = (1.3238 | 0.2066 1.3294 ) 
~ xmatrix = (1.3569 | 0.4591 1.3471 ) 
~ units=mi 
New linecode.mtx605 nphases=1 BaseFreq=60 
~ rmatrix = (1.3292 ) 
~ xmatrix = (1.3475 ) 
~ units=mi 

/*********** Original 606 Linecode *********************

You have to use this to match Kersting's results:

New linecode.mtx606 nphases=3 BaseFreq=60 
~ rmatrix = (0.7982 | 0.3192 0.7891 | 0.2849 0.3192 0.7982 ) 
~ xmatrix = (0.4463 | 0.0328 0.4041 | -0.0143 0.0328 0.4463 ) 
~ Cmatrix = [257 | 0 257 | 0 0 257]  ! <--- This is too low by 1.5
~ units=mi 

Corrected mtx606  Feb 3 2016 by RDugan

The new LineCode.606 is computed using the following CN cable definition and 
LineGeometry definition:

New CNDATA.250_1/3 k=13 DiaStrand=0.064 Rstrand=2.816666667 epsR=2.3
~ InsLayer=0.220 DiaIns=1.06 DiaCable=1.16 Rac=0.076705 GMRac=0.20568 diam=0.573
~ Runits=kft Radunits=in GMRunits=in

New LineGeometry.606 nconds=3 nphases=3 units=ft
~ cond=1 cncable=250_1/3 x=-0.5 h= -4
~ cond=2 cncable=250_1/3 x=0   h= -4
~ cond=3 cncable=250_1/3 x=0.5  h= -4

****End Comment******/ 

New Linecode.mtx606 nphases=3  Units=mi
~ Rmatrix=[0.791721  |0.318476  0.781649  |0.28345  0.318476  0.791721  ]
~ Xmatrix=[0.438352  |0.0276838  0.396697  |-0.0184204  0.0276838  0.438352  ]
~ Cmatrix=[383.948  |0  383.948  |0  0  383.948  ]
New linecode.mtx607 nphases=1 BaseFreq=60 
~ rmatrix = (1.3425 ) 
~ xmatrix = (0.5124 )
~ cmatrix = [236] 
~ units=mi 

//////////////////////////////////////////////////////////////////




!LOAD DEFINITIONS 
New Load.671 Bus1=671.1.2.3  Phases=3 Conn=Delta Model=1 kV=4.16   kW=1155 kvar=660 

//comment node 634 by Emad

//New Load.634a Bus1=634.1     Phases=1 Conn=Wye  Model=1 kV=0.277  kW=160   kvar=110 
//New Load.634b Bus1=634.2     Phases=1 Conn=Wye  Model=1 kV=0.277  kW=120   kvar=90 
//New Load.634c Bus1=634.3     Phases=1 Conn=Wye  Model=1 kV=0.277  kW=120   kvar=90 

New Load.645 Bus1=645.2       Phases=1 Conn=Wye  Model=1 kV=2.4      kW=170   kvar=125 
New Load.646 Bus1=646.2.3    Phases=1 Conn=Delta Model=2 kV=4.16    kW=230   kvar=132 
New Load.692 Bus1=692.3.1    Phases=1 Conn=Delta Model=5 kV=4.16    kW=170   kvar=151 
New Load.675a Bus1=675.1    Phases=1 Conn=Wye  Model=1 kV=2.4  kW=485   kvar=190 
New Load.675b Bus1=675.2    Phases=1 Conn=Wye  Model=1 kV=2.4  kW=68   kvar=60 
New Load.675c Bus1=675.3    Phases=1 Conn=Wye  Model=1 kV=2.4  kW=290   kvar=212 

//commented node 652 and 652 by Emad
//New Load.611 Bus1=611.3      Phases=1 Conn=Wye  Model=5 kV=2.4  kW=170   kvar=80 
//New Load.652 Bus1=652.1      Phases=1 Conn=Wye  Model=2 kV=2.4  kW=128   kvar=86 


New Load.670a Bus1=670.1    Phases=1 Conn=Wye  Model=1 kV=2.4  kW=17    kvar=10 
New Load.670b Bus1=670.2    Phases=1 Conn=Wye  Model=1 kV=2.4  kW=66    kvar=38 
New Load.670c Bus1=670.3    Phases=1 Conn=Wye  Model=1 kV=2.4  kW=117  kvar=68 
/////////////////////////////////////////////////////////////////////////////////////////////////////////////
//Added by Emad (Load and PV for each building)
// Load for secondary of 634-a.1 (B stands for building)
// the process is like that: Let's say we want to model load and PV for the second transformer in lateral feeder of node 634. we should model all three phases. we male seven other nodes beside the node itself, for example for modelling phase a of lateral 633, we will have 633.1 , 633.2.1 , 633.2.2, ....,  
New Load.B1-634-a.1 Bus1=634-1'1.1    Phases=1 Conn=Wye  Model=1 kV=2.4  kW=6    kvar=0 
New Load.B2-634-a.1 Bus1=634-1'2.1    Phases=1 Conn=Wye  Model=1 kV=2.4  kW=6    kvar=0 
New Load.B3-634-a.1 Bus1=634-1'3.1   Phases=1 Conn=Wye  Model=1 kV=2.4  kW=6     kvar=0 
New Load.B4-634-a.1 Bus1=634-1'4.1   Phases=1 Conn=Wye  Model=1 kV=2.4  kW=6     kvar=0 

// pv definition 634-a.1(Define PV for each building above)
New PVSystem.pB1-634-a.1 phases=1 bus1=634-1'1.1 kV=2.4  kVA=6  irrad=0.8  Pmpp=500  temperature=25 PF=1  effcurve=Myeff  P-TCurve=MyPvsT  Daily=MyIrrad  TDaily=MyTemp
New PVSystem.pB2-634-a.1 phases=1 bus1=634-1'2.1 kV=2.4  kVA=6  irrad=0.8  Pmpp=500  temperature=25 PF=1  effcurve=Myeff  P-TCurve=MyPvsT  Daily=MyIrrad  TDaily=MyTemp
New PVSystem.pB3-634-a.1 phases=1 bus1=634-1'3.1 kV=2.4  kVA=3  irrad=0.8  Pmpp=500  temperature=25 PF=1  effcurve=Myeff  P-TCurve=MyPvsT  Daily=MyIrrad  TDaily=MyTemp 
New PVSystem.pB4-634-a.1 phases=1 bus1=634-1'4.1 kV=2.4  kVA=3  irrad=0.8  Pmpp=500  temperature=25 PF=1  effcurve=Myeff  P-TCurve=MyPvsT  Daily=MyIrrad  TDaily=MyTemp   

// Load for secondary of 634-a-2 (B stands for building)
New Load.B1-634-a.2 Bus1=634-2'1.1    Phases=1 Conn=Wye  Model=1 kV=2.4  kW=6    kvar=0 
New Load.B2-634-a.2 Bus1=634-2'2.1    Phases=1 Conn=Wye  Model=1 kV=2.4  kW=6    kvar=0 
New Load.B3-634-a.2 Bus1=634-2'3.1   Phases=1 Conn=Wye  Model=1 kV=2.4  kW=6    kvar=0 
New Load.B4-634-a.2 Bus1=634-2'4.1   Phases=1 Conn=Wye  Model=1 kV=2.4  kW=6    kvar=0

// pv definition 634-a.2(Define PV for each building above)
New PVSystem.pB1-634-a.2 phases=1 bus1=634-2'1.1 kV=2.4  kVA=500  irrad=0.8  Pmpp=500  temperature=25 PF=1  effcurve=Myeff  P-TCurve=MyPvsT  Daily=MyIrrad  TDaily=MyTemp
New PVSystem.pB2-634-a.2 phases=1 bus1=634-2'2.1 kV=2.4  kVA=500  irrad=0.8  Pmpp=500  temperature=25 PF=1  effcurve=Myeff  P-TCurve=MyPvsT  Daily=MyIrrad  TDaily=MyTemp
New PVSystem.pB3-634-a.2 phases=1 bus1=634-2'3.1 kV=2.4  kVA=500  irrad=0.8  Pmpp=500  temperature=25 PF=1  effcurve=Myeff  P-TCurve=MyPvsT  Daily=MyIrrad  TDaily=MyTemp 
New PVSystem.pB4-634-a.2 phases=1 bus1=634-2'4.1 kV=2.4  kVA=500  irrad=0.8  Pmpp=500  temperature=25 PF=1  effcurve=Myeff  P-TCurve=MyPvsT  Daily=MyIrrad  TDaily=MyTemp   

// Load for secondary of 634-a-3 (B stands for building)
New Load.B1-634-a.3 Bus1=634-3'1.1    Phases=1 Conn=Wye  Model=1 kV=2.4  kW=6    kvar=0 
New Load.B2-634-a.3 Bus1=634-3'2.1    Phases=1 Conn=Wye  Model=1 kV=2.4  kW=6    kvar=0 
New Load.B3-634-a.3 Bus1=634-3'3.1   Phases=1 Conn=Wye  Model=1 kV=2.4  kW=6    kvar=0 
New Load.B4-634-a.3 Bus1=634-3'4.1   Phases=1 Conn=Wye  Model=1 kV=2.4  kW=6    kvar=0

// pv definition 634-a.3(Define PV for each building above)
New PVSystem.pB1-634-a.3 phases=1 bus1=634-3'1.1 kV=2.4  kVA=500  irrad=0.8  Pmpp=500  temperature=25 PF=1  effcurve=Myeff  P-TCurve=MyPvsT  Daily=MyIrrad  TDaily=MyTemp
New PVSystem.pB2-634-a.3 phases=1 bus1=634-3'2.1 kV=2.4  kVA=500  irrad=0.8  Pmpp=500  temperature=25 PF=1  effcurve=Myeff  P-TCurve=MyPvsT  Daily=MyIrrad  TDaily=MyTemp
New PVSystem.pB3-634-a.3 phases=1 bus1=634-3'3.1 kV=2.4  kVA=500  irrad=0.8  Pmpp=500  temperature=25 PF=1  effcurve=Myeff  P-TCurve=MyPvsT  Daily=MyIrrad  TDaily=MyTemp 
New PVSystem.pB4-634-a.3 phases=1 bus1=634-3'4.1 kV=2.4  kVA=500  irrad=0.8  Pmpp=500  temperature=25 PF=1  effcurve=Myeff  P-TCurve=MyPvsT  Daily=MyIrrad  TDaily=MyTemp   

// Load for secondary of 634-a-4 (B stands for building)
New Load.B1-634-a.4 Bus1=634-4'1.1   Phases=1 Conn=Wye  Model=1 kV=2.4  kW=6    kvar=0 
New Load.B2-634-a.4 Bus1=634-4'2.1   Phases=1 Conn=Wye  Model=1 kV=2.4  kW=6    kvar=0 
New Load.B3-634-a.4 Bus1=634-4'3.1   Phases=1 Conn=Wye  Model=1 kV=2.4  kW=6    kvar=0 
New Load.B4-634-a.4 Bus1=634-4'4.1   Phases=1 Conn=Wye  Model=1 kV=2.4  kW=6    kvar=0

// pv definition 634-a-4(Define PV for each building above)
New PVSystem.pB1-634-a.4 phases=1 bus1=634-4'1.1 kV=2.4  kVA=500  irrad=0.8  Pmpp=500  temperature=25 PF=1  effcurve=Myeff  P-TCurve=MyPvsT  Daily=MyIrrad  TDaily=MyTemp
New PVSystem.pB2-634-a.4 phases=1 bus1=634-4'2.1 kV=2.4  kVA=500  irrad=0.8  Pmpp=500  temperature=25 PF=1  effcurve=Myeff  P-TCurve=MyPvsT  Daily=MyIrrad  TDaily=MyTemp
New PVSystem.pB3-634-a.4 phases=1 bus1=634-4'3.1 kV=2.4  kVA=500  irrad=0.8  Pmpp=500  temperature=25 PF=1  effcurve=Myeff  P-TCurve=MyPvsT  Daily=MyIrrad  TDaily=MyTemp 
New PVSystem.pB4-634-a.4 phases=1 bus1=634-4'4.1 kV=2.4  kVA=500  irrad=0.8  Pmpp=500  temperature=25 PF=1  effcurve=Myeff  P-TCurve=MyPvsT  Daily=MyIrrad  TDaily=MyTemp   

// Load for secondary of 634-a-5 (B stands for building)
New Load.B1-634-a.5 Bus1=634-5'1.1    Phases=1 Conn=Wye  Model=1 kV=2.4  kW=6    kvar=0 
New Load.B2-634-a.5 Bus1=634-5'2.1    Phases=1 Conn=Wye  Model=1 kV=2.4  kW=6    kvar=0 
New Load.B3-634-a.5 Bus1=634-5'3.1   Phases=1 Conn=Wye  Model=1 kV=2.4  kW=6    kvar=0 
New Load.B4-634-a.5 Bus1=634-5'4.1   Phases=1 Conn=Wye  Model=1 kV=2.4  kW=6    kvar=0

// pv definition 634-a-5(Define PV for each building above)
New PVSystem.pB1-634-a.5 phases=1 bus1=634-5'1.1 kV=2.4  kVA=500  irrad=0.8  Pmpp=500  temperature=25 PF=1  effcurve=Myeff  P-TCurve=MyPvsT  Daily=MyIrrad  TDaily=MyTemp
New PVSystem.pB2-634-a.5 phases=1 bus1=634-5'2.1 kV=2.4  kVA=500  irrad=0.8  Pmpp=500  temperature=25 PF=1  effcurve=Myeff  P-TCurve=MyPvsT  Daily=MyIrrad  TDaily=MyTemp
New PVSystem.pB3-634-a.5 phases=1 bus1=634-5'3.1 kV=2.4  kVA=500  irrad=0.8  Pmpp=500  temperature=25 PF=1  effcurve=Myeff  P-TCurve=MyPvsT  Daily=MyIrrad  TDaily=MyTemp 
New PVSystem.pB4-634-a.5 phases=1 bus1=634-5'4.1 kV=2.4  kVA=500  irrad=0.8  Pmpp=500  temperature=25 PF=1  effcurve=Myeff  P-TCurve=MyPvsT  Daily=MyIrrad  TDaily=MyTemp   

// Load for secondary of 634-a-6 (B stands for building)
New Load.B1-634-a.6 Bus1=634-6'1.1    Phases=1 Conn=Wye  Model=1 kV=2.4  kW=6    kvar=0 
New Load.B2-634-a.6 Bus1=634-6'2.1    Phases=1 Conn=Wye  Model=1 kV=2.4  kW=6    kvar=0 
New Load.B3-634-a.6 Bus1=634-6'3.1   Phases=1 Conn=Wye  Model=1 kV=2.4  kW=6    kvar=0 
New Load.B4-634-a.6 Bus1=634-6'4.1   Phases=1 Conn=Wye  Model=1 kV=2.4  kW=6    kvar=0

// pv definition 634-a-6 (Define PV for each building above)
New PVSystem.pB1-634-a.6 phases=1 bus1=634-6'1.1 kV=2.4  kVA=500  irrad=0.8  Pmpp=500  temperature=25 PF=1  effcurve=Myeff  P-TCurve=MyPvsT  Daily=MyIrrad  TDaily=MyTemp
New PVSystem.pB2-634-a.6 phases=1 bus1=634-6'2.1 kV=2.4  kVA=500  irrad=0.8  Pmpp=500  temperature=25 PF=1  effcurve=Myeff  P-TCurve=MyPvsT  Daily=MyIrrad  TDaily=MyTemp
New PVSystem.pB3-634-a.6 phases=1 bus1=634-6'3.1 kV=2.4  kVA=500  irrad=0.8  Pmpp=500  temperature=25 PF=1  effcurve=Myeff  P-TCurve=MyPvsT  Daily=MyIrrad  TDaily=MyTemp 
New PVSystem.pB4-634-a.6 phases=1 bus1=634-6'4.1 kV=2.4  kVA=500  irrad=0.8  Pmpp=500  temperature=25 PF=1  effcurve=Myeff  P-TCurve=MyPvsT  Daily=MyIrrad  TDaily=MyTemp   
////////////////////////////////////////////////////////////////
// Load for secondary of 634-b.1' (B stands for building)
// Load for secondary of 634-b.1 (B stands for building)
New Load.B1-634-b.1 Bus1=634-1'1.2    Phases=1 Conn=Wye  Model=1 kV=2.4  kW=6    kvar=0 
New Load.B2-634-b.1 Bus1=634-1'2.2    Phases=1 Conn=Wye  Model=1 kV=2.4  kW=6    kvar=0 
New Load.B3-634-b.1 Bus1=634-1'3.2   Phases=1 Conn=Wye  Model=1 kV=2.4  kW=6     kvar=0 
New Load.B4-634-b.1 Bus1=634-1'4.2   Phases=1 Conn=Wye  Model=1 kV=2.4  kW=6     kvar=0 

// pv definition 634-b.1(Define PV for each building above)
New PVSystem.pB1-634-b.1 phases=1 bus1=634-1'1.2 kV=2.4  kVA=500  irrad=0.8  Pmpp=500  temperature=25 PF=1  effcurve=Myeff  P-TCurve=MyPvsT  Daily=MyIrrad  TDaily=MyTemp
New PVSystem.pB2-634-b.1 phases=1 bus1=634-1'2.2 kV=2.4  kVA=500  irrad=0.8  Pmpp=500  temperature=25 PF=1  effcurve=Myeff  P-TCurve=MyPvsT  Daily=MyIrrad  TDaily=MyTemp
New PVSystem.pB3-634-b.1 phases=1 bus1=634-1'3.2 kV=2.4  kVA=500  irrad=0.8  Pmpp=500  temperature=25 PF=1  effcurve=Myeff  P-TCurve=MyPvsT  Daily=MyIrrad  TDaily=MyTemp 
New PVSystem.pB4-634-b.1 phases=1 bus1=634-1'4.2 kV=2.4  kVA=500  irrad=0.8  Pmpp=500  temperature=25 PF=1  effcurve=Myeff  P-TCurve=MyPvsT  Daily=MyIrrad  TDaily=MyTemp   

// Load for secondary of 634-b-2 (B stands for building)
New Load.B1-634-b.2 Bus1=634-2'1.2    Phases=1 Conn=Wye  Model=1 kV=2.4  kW=6    kvar=0 
New Load.B2-634-b.2 Bus1=634-2'2.2    Phases=1 Conn=Wye  Model=1 kV=2.4  kW=6    kvar=0 
New Load.B3-634-b.2 Bus1=634-2'3.2    Phases=1 Conn=Wye  Model=1 kV=2.4  kW=6    kvar=0 
New Load.B4-634-b.2 Bus1=634-2'4.2    Phases=1 Conn=Wye  Model=1 kV=2.4  kW=6    kvar=0

// pv definition 634-b.2(Define PV for each building above)
New PVSystem.pB1-634-b.2 phases=1 bus1=634-2'1.2 kV=2.4  kVA=500  irrad=0.8  Pmpp=500  temperature=25 PF=1  effcurve=Myeff  P-TCurve=MyPvsT  Daily=MyIrrad  TDaily=MyTemp
New PVSystem.pB2-634-b.2 phases=1 bus1=634-2'2.2 kV=2.4  kVA=500  irrad=0.8  Pmpp=500  temperature=25 PF=1  effcurve=Myeff  P-TCurve=MyPvsT  Daily=MyIrrad  TDaily=MyTemp
New PVSystem.pB3-634-b.2 phases=1 bus1=634-2'3.2 kV=2.4  kVA=500  irrad=0.8  Pmpp=500  temperature=25 PF=1  effcurve=Myeff  P-TCurve=MyPvsT  Daily=MyIrrad  TDaily=MyTemp 
New PVSystem.pB4-634-b.2 phases=1 bus1=634-2'4.2 kV=2.4  kVA=500  irrad=0.8  Pmpp=500  temperature=25 PF=1  effcurve=Myeff  P-TCurve=MyPvsT  Daily=MyIrrad  TDaily=MyTemp   

// Load for secondary of 634-b-3 (B stands for building)
New Load.B1-634-b.3 Bus1=634-3'1.2    Phases=1 Conn=Wye  Model=1 kV=2.4  kW=6    kvar=0 
New Load.B2-634-b.3 Bus1=634-3'2.2    Phases=1 Conn=Wye  Model=1 kV=2.4  kW=6    kvar=0 
New Load.B3-634-b.3 Bus1=634-3'3.2   Phases=1 Conn=Wye  Model=1 kV=2.4  kW=6    kvar=0 
New Load.B4-634-b.3 Bus1=634-3'4.2   Phases=1 Conn=Wye  Model=1 kV=2.4  kW=6    kvar=0

// pv definition 634-b.3(Define PV for each building above)
New PVSystem.pB1-634-b.3 phases=1 bus1=634-3'1.2 kV=2.4  kVA=500  irrad=0.8  Pmpp=500  temperature=25 PF=1  effcurve=Myeff  P-TCurve=MyPvsT  Daily=MyIrrad  TDaily=MyTemp
New PVSystem.pB2-634-b.3 phases=1 bus1=634-3'2.2 kV=2.4  kVA=500  irrad=0.8  Pmpp=500  temperature=25 PF=1  effcurve=Myeff  P-TCurve=MyPvsT  Daily=MyIrrad  TDaily=MyTemp
New PVSystem.pB3-634-b.3 phases=1 bus1=634-3'3.2 kV=2.4  kVA=500  irrad=0.8  Pmpp=500  temperature=25 PF=1  effcurve=Myeff  P-TCurve=MyPvsT  Daily=MyIrrad  TDaily=MyTemp 
New PVSystem.pB4-634-b.3 phases=1 bus1=634-3'4.2 kV=2.4  kVA=500  irrad=0.8  Pmpp=500  temperature=25 PF=1  effcurve=Myeff  P-TCurve=MyPvsT  Daily=MyIrrad  TDaily=MyTemp   

// Load for secondary of 634-b-4 (B stands for building)
New Load.B1-634-b.4 Bus1=634-4'1.2   Phases=1 Conn=Wye  Model=1 kV=2.4  kW=6    kvar=0 
New Load.B2-634-b.4 Bus1=634-4'2.2   Phases=1 Conn=Wye  Model=1 kV=2.4  kW=6    kvar=0 
New Load.B3-634-b.4 Bus1=634-4'3.2   Phases=1 Conn=Wye  Model=1 kV=2.4  kW=6    kvar=0 
New Load.B4-634-b.4 Bus1=634-4'4.2   Phases=1 Conn=Wye  Model=1 kV=2.4  kW=6    kvar=0

// pv definition 634-b-4(Define PV for each building above)
New PVSystem.pB1-634-b.4 phases=1 bus1=634-4'1.2 kV=2.4  kVA=500  irrad=0.8  Pmpp=500  temperature=25 PF=1  effcurve=Myeff  P-TCurve=MyPvsT  Daily=MyIrrad  TDaily=MyTemp
New PVSystem.pB2-634-b.4 phases=1 bus1=634-4'2.2 kV=2.4  kVA=500  irrad=0.8  Pmpp=500  temperature=25 PF=1  effcurve=Myeff  P-TCurve=MyPvsT  Daily=MyIrrad  TDaily=MyTemp
New PVSystem.pB3-634-b.4 phases=1 bus1=634-4'3.2 kV=2.4  kVA=500  irrad=0.8  Pmpp=500  temperature=25 PF=1  effcurve=Myeff  P-TCurve=MyPvsT  Daily=MyIrrad  TDaily=MyTemp 
New PVSystem.pB4-634-b.4 phases=1 bus1=634-4'4.2 kV=2.4  kVA=500  irrad=0.8  Pmpp=500  temperature=25 PF=1  effcurve=Myeff  P-TCurve=MyPvsT  Daily=MyIrrad  TDaily=MyTemp   

// Load for secondary of 634-b-5 (B stands for building)
New Load.B1-634-b.5 Bus1=634-5'1.2    Phases=1 Conn=Wye  Model=1 kV=2.4  kW=6    kvar=0 
New Load.B2-634-b.5 Bus1=634-5'2.2    Phases=1 Conn=Wye  Model=1 kV=2.4  kW=6    kvar=0 
New Load.B3-634-b.5 Bus1=634-5'3.2   Phases=1 Conn=Wye  Model=1 kV=2.4  kW=6    kvar=0 
New Load.B4-634-b.5 Bus1=634-5'4.2   Phases=1 Conn=Wye  Model=1 kV=2.4  kW=6    kvar=0

// pv definition 634-b-5(Define PV for each building above)
New PVSystem.pB1-634-b.5 phases=1 bus1=634-5'1.2 kV=2.4  kVA=500  irrad=0.8  Pmpp=500  temperature=25 PF=1  effcurve=Myeff  P-TCurve=MyPvsT  Daily=MyIrrad  TDaily=MyTemp
New PVSystem.pB2-634-b.5 phases=1 bus1=634-5'2.2 kV=2.4  kVA=500  irrad=0.8  Pmpp=500  temperature=25 PF=1  effcurve=Myeff  P-TCurve=MyPvsT  Daily=MyIrrad  TDaily=MyTemp
New PVSystem.pB3-634-b.5 phases=1 bus1=634-5'3.2 kV=2.4  kVA=500  irrad=0.8  Pmpp=500  temperature=25 PF=1  effcurve=Myeff  P-TCurve=MyPvsT  Daily=MyIrrad  TDaily=MyTemp 
New PVSystem.pB4-634-b.5 phases=1 bus1=634-5'4.2 kV=2.4  kVA=500  irrad=0.8  Pmpp=500  temperature=25 PF=1  effcurve=Myeff  P-TCurve=MyPvsT  Daily=MyIrrad  TDaily=MyTemp   

// Load for secondary of 634-b-6 (B stands for building)
New Load.B1-634-b.6 Bus1=634-6'1.2    Phases=1 Conn=Wye  Model=1 kV=2.4  kW=6    kvar=0 
New Load.B2-634-b.6 Bus1=634-6'2.2    Phases=1 Conn=Wye  Model=1 kV=2.4  kW=6    kvar=0 
New Load.B3-634-b.6 Bus1=634-6'3.2   Phases=1 Conn=Wye  Model=1 kV=2.4  kW=6    kvar=0 
New Load.B4-634-b.6 Bus1=634-6'4.2   Phases=1 Conn=Wye  Model=1 kV=2.4  kW=6    kvar=0

// pv definition 634-b-6 (Define PV for each building above)
New PVSystem.pB1-634-b.6 phases=1 bus1=634-6'1.2 kV=2.4  kVA=500  irrad=0.8  Pmpp=500  temperature=25 PF=1  effcurve=Myeff  P-TCurve=MyPvsT  Daily=MyIrrad  TDaily=MyTemp
New PVSystem.pB2-634-b.6 phases=1 bus1=634-6'2.2 kV=2.4  kVA=500  irrad=0.8  Pmpp=500  temperature=25 PF=1  effcurve=Myeff  P-TCurve=MyPvsT  Daily=MyIrrad  TDaily=MyTemp
New PVSystem.pB3-634-b.6 phases=1 bus1=634-6'3.2 kV=2.4  kVA=500  irrad=0.8  Pmpp=500  temperature=25 PF=1  effcurve=Myeff  P-TCurve=MyPvsT  Daily=MyIrrad  TDaily=MyTemp 
New PVSystem.pB4-634-b.6 phases=1 bus1=634-6'4.2 kV=2.4  kVA=500  irrad=0.8  Pmpp=500  temperature=25 PF=1  effcurve=Myeff  P-TCurve=MyPvsT  Daily=MyIrrad  TDaily=MyTemp   
/////////////////////////////////////////////////////////////////////
// Load for secondary of 634-c.1 (B stands for building)
New Load.B1-634-c.1 Bus1=634-1'1.3    Phases=1 Conn=Wye  Model=1 kV=2.4  kW=6    kvar=0 
New Load.B2-634-c.1 Bus1=634-1'2.3    Phases=1 Conn=Wye  Model=1 kV=2.4  kW=6    kvar=0 
New Load.B3-634-c.1 Bus1=634-1'3.3   Phases=1 Conn=Wye  Model=1 kV=2.4  kW=6     kvar=0 
New Load.B4-634-c.1 Bus1=634-1'4.3   Phases=1 Conn=Wye  Model=1 kV=2.4  kW=6     kvar=0 

// pv definition 634-c.1(Define PV for each building above)
New PVSystem.pB1-634-c.1 phases=1 bus1=634-1'1.3 kV=2.4  kVA=500  irrad=0.8  Pmpp=500  temperature=25 PF=1  effcurve=Myeff  P-TCurve=MyPvsT  Daily=MyIrrad  TDaily=MyTemp
New PVSystem.pB2-634-c.1 phases=1 bus1=634-1'2.3 kV=2.4  kVA=500  irrad=0.8  Pmpp=500  temperature=25 PF=1  effcurve=Myeff  P-TCurve=MyPvsT  Daily=MyIrrad  TDaily=MyTemp
New PVSystem.pB3-634-c.1 phases=1 bus1=634-1'3.3 kV=2.4  kVA=500  irrad=0.8  Pmpp=500  temperature=25 PF=1  effcurve=Myeff  P-TCurve=MyPvsT  Daily=MyIrrad  TDaily=MyTemp 
New PVSystem.pB4-634-c.1 phases=1 bus1=634-1'4.3 kV=2.4  kVA=500  irrad=0.8  Pmpp=500  temperature=25 PF=1  effcurve=Myeff  P-TCurve=MyPvsT  Daily=MyIrrad  TDaily=MyTemp   

// Load for secondary of 634-c-2 (B stands for building)
New Load.B1-634-c.2 Bus1=634-2'1.3    Phases=1 Conn=Wye  Model=1 kV=2.4  kW=6    kvar=0 
New Load.B2-634-c.2 Bus1=634-2'2.3    Phases=1 Conn=Wye  Model=1 kV=2.4  kW=6    kvar=0 
New Load.B3-634-c.2 Bus1=634-2'3.3   Phases=1 Conn=Wye  Model=1 kV=2.4  kW=6    kvar=0 
New Load.B4-634-c.2 Bus1=634-2'4.3   Phases=1 Conn=Wye  Model=1 kV=2.4  kW=6    kvar=0

// pv definition 634-c.2(Define PV for each building above)
New PVSystem.pB1-634-c.2 phases=1 bus1=634-2'1.3 kV=2.4  kVA=500  irrad=0.8  Pmpp=500  temperature=25 PF=1  effcurve=Myeff  P-TCurve=MyPvsT  Daily=MyIrrad  TDaily=MyTemp
New PVSystem.pB2-634-c.2 phases=1 bus1=634-2'2.3 kV=2.4  kVA=500  irrad=0.8  Pmpp=500  temperature=25 PF=1  effcurve=Myeff  P-TCurve=MyPvsT  Daily=MyIrrad  TDaily=MyTemp
New PVSystem.pB3-634-c.2 phases=1 bus1=634-2'3.3 kV=2.4  kVA=500  irrad=0.8  Pmpp=500  temperature=25 PF=1  effcurve=Myeff  P-TCurve=MyPvsT  Daily=MyIrrad  TDaily=MyTemp 
New PVSystem.pB4-634-c.2 phases=1 bus1=634-2'4.3 kV=2.4  kVA=500  irrad=0.8  Pmpp=500  temperature=25 PF=1  effcurve=Myeff  P-TCurve=MyPvsT  Daily=MyIrrad  TDaily=MyTemp   

// Load for secondary of 634-c-3 (B stands for building)
New Load.B1-634-c.3 Bus1=634-3'1.3    Phases=1 Conn=Wye  Model=1 kV=2.4  kW=6    kvar=0 
New Load.B2-634-c.3 Bus1=634-3'2.3    Phases=1 Conn=Wye  Model=1 kV=2.4  kW=6    kvar=0 
New Load.B3-634-c.3 Bus1=634-3'3.3   Phases=1 Conn=Wye  Model=1 kV=2.4  kW=6    kvar=0 
New Load.B4-634-c.3 Bus1=634-3'4.3   Phases=1 Conn=Wye  Model=1 kV=2.4  kW=6    kvar=0

// pv definition 634-c.3(Define PV for each building above)
New PVSystem.pB1-634-c.3 phases=1 bus1=634-3'1.3 kV=2.4  kVA=500  irrad=0.8  Pmpp=500  temperature=25 PF=1  effcurve=Myeff  P-TCurve=MyPvsT  Daily=MyIrrad  TDaily=MyTemp
New PVSystem.pB2-634-c.3 phases=1 bus1=634-3'2.3 kV=2.4  kVA=500  irrad=0.8  Pmpp=500  temperature=25 PF=1  effcurve=Myeff  P-TCurve=MyPvsT  Daily=MyIrrad  TDaily=MyTemp
New PVSystem.pB3-634-c.3 phases=1 bus1=634-3'3.3 kV=2.4  kVA=500  irrad=0.8  Pmpp=500  temperature=25 PF=1  effcurve=Myeff  P-TCurve=MyPvsT  Daily=MyIrrad  TDaily=MyTemp 
New PVSystem.pB4-634-c.3 phases=1 bus1=634-3'4.3 kV=2.4  kVA=500  irrad=0.8  Pmpp=500  temperature=25 PF=1  effcurve=Myeff  P-TCurve=MyPvsT  Daily=MyIrrad  TDaily=MyTemp   

// Load for secondary of 634-c-4 (B stands for building)
New Load.B1-634-c.4 Bus1=634-4'1.3   Phases=1 Conn=Wye  Model=1 kV=2.4  kW=6    kvar=0 
New Load.B2-634-c.4 Bus1=634-4'2.3   Phases=1 Conn=Wye  Model=1 kV=2.4  kW=6    kvar=0 
New Load.B3-634-c.4 Bus1=634-4'3.3   Phases=1 Conn=Wye  Model=1 kV=2.4  kW=6    kvar=0 
New Load.B4-634-c.4 Bus1=634-4'4.3   Phases=1 Conn=Wye  Model=1 kV=2.4  kW=6    kvar=0

// pv definition 634-c-4(Define PV for each building above)
New PVSystem.pB1-634-c.4 phases=1 bus1=634-4'1.3 kV=2.4  kVA=500  irrad=0.8  Pmpp=500  temperature=25 PF=1  effcurve=Myeff  P-TCurve=MyPvsT  Daily=MyIrrad  TDaily=MyTemp
New PVSystem.pB2-634-c.4 phases=1 bus1=634-4'2.3 kV=2.4  kVA=500  irrad=0.8  Pmpp=500  temperature=25 PF=1  effcurve=Myeff  P-TCurve=MyPvsT  Daily=MyIrrad  TDaily=MyTemp
New PVSystem.pB3-634-c.4 phases=1 bus1=634-4'3.3 kV=2.4  kVA=500  irrad=0.8  Pmpp=500  temperature=25 PF=1  effcurve=Myeff  P-TCurve=MyPvsT  Daily=MyIrrad  TDaily=MyTemp 
New PVSystem.pB4-634-c.4 phases=1 bus1=634-4'4.3 kV=2.4  kVA=500  irrad=0.8  Pmpp=500  temperature=25 PF=1  effcurve=Myeff  P-TCurve=MyPvsT  Daily=MyIrrad  TDaily=MyTemp   

// Load for secondary of 634-c-5 (B stands for building)
New Load.B1-634-c.5 Bus1=634-5'1.3    Phases=1 Conn=Wye  Model=1 kV=2.4  kW=6    kvar=0 
New Load.B2-634-c.5 Bus1=634-5'2.3    Phases=1 Conn=Wye  Model=1 kV=2.4  kW=6    kvar=0 
New Load.B3-634-c.5 Bus1=634-5'3.3   Phases=1 Conn=Wye  Model=1 kV=2.4  kW=6    kvar=0 
New Load.B4-634-c.5 Bus1=634-5'4.3   Phases=1 Conn=Wye  Model=1 kV=2.4  kW=6    kvar=0

// pv definition 634-c-5(Define PV for each building above)
New PVSystem.pB1-634-c.5 phases=1 bus1=634-5'1.3 kV=2.4  kVA=500  irrad=0.8  Pmpp=500  temperature=25 PF=1  effcurve=Myeff  P-TCurve=MyPvsT  Daily=MyIrrad  TDaily=MyTemp
New PVSystem.pB2-634-c.5 phases=1 bus1=634-5'2.3 kV=2.4  kVA=500  irrad=0.8  Pmpp=500  temperature=25 PF=1  effcurve=Myeff  P-TCurve=MyPvsT  Daily=MyIrrad  TDaily=MyTemp
New PVSystem.pB3-634-c.5 phases=1 bus1=634-5'3.3 kV=2.4  kVA=500  irrad=0.8  Pmpp=500  temperature=25 PF=1  effcurve=Myeff  P-TCurve=MyPvsT  Daily=MyIrrad  TDaily=MyTemp 
New PVSystem.pB4-634-c.5 phases=1 bus1=634-5'4.3 kV=2.4  kVA=500  irrad=0.8  Pmpp=500  temperature=25 PF=1  effcurve=Myeff  P-TCurve=MyPvsT  Daily=MyIrrad  TDaily=MyTemp   

// Load for secondary of 634-c-6 (B stands for building)
New Load.B1-634-c.6 Bus1=634-6'1.3    Phases=1 Conn=Wye  Model=1 kV=2.4  kW=6    kvar=0 
New Load.B2-634-c.6 Bus1=634-6'2.3    Phases=1 Conn=Wye  Model=1 kV=2.4  kW=6    kvar=0 
New Load.B3-634-c.6 Bus1=634-6'3.3   Phases=1 Conn=Wye  Model=1 kV=2.4  kW=6    kvar=0 
New Load.B4-634-c.6 Bus1=634-6'4.3   Phases=1 Conn=Wye  Model=1 kV=2.4  kW=6    kvar=0

// pv definition 634-c-6 (Define PV for each building above)
New PVSystem.pB1-634-c.6 phases=1 bus1=634-6'1.3 kV=2.4  kVA=500  irrad=0.8  Pmpp=500  temperature=25 PF=1  effcurve=Myeff  P-TCurve=MyPvsT  Daily=MyIrrad  TDaily=MyTemp
New PVSystem.pB2-634-c.6 phases=1 bus1=634-6'2.3 kV=2.4  kVA=500  irrad=0.8  Pmpp=500  temperature=25 PF=1  effcurve=Myeff  P-TCurve=MyPvsT  Daily=MyIrrad  TDaily=MyTemp
New PVSystem.pB3-634-c.6 phases=1 bus1=634-6'3.3 kV=2.4  kVA=500  irrad=0.8  Pmpp=500  temperature=25 PF=1  effcurve=Myeff  P-TCurve=MyPvsT  Daily=MyIrrad  TDaily=MyTemp 
New PVSystem.pB4-634-c.6 phases=1 bus1=634-6'4.3 kV=2.4  kVA=500  irrad=0.8  Pmpp=500  temperature=25 PF=1  effcurve=Myeff  P-TCurve=MyPvsT  Daily=MyIrrad  TDaily=MyTemp     
///////////////////////////////////////////////////////////////////////////////////////////////////////////
//node 633
// Load for secondary of 633-a.1 (B stands for building)
New Load.B1-633-a.1 Bus1=633-1'1.1    Phases=1 Conn=Wye  Model=1 kV=2.4  kW=6    kvar=0 
New Load.B2-633-a.1 Bus1=633-1'2.1    Phases=1 Conn=Wye  Model=1 kV=2.4  kW=6    kvar=0 
New Load.B3-633-a.1 Bus1=633-1'3.1   Phases=1 Conn=Wye  Model=1  kV=2.4  kW=6     kvar=0 
New Load.B4-633-a.1 Bus1=633-1'4.1   Phases=1 Conn=Wye  Model=1  kV=2.4  kW=6     kvar=0 

// pv definition 633-a.1(Define PV for each building above)
New PVSystem.pB1-633-a.1 phases=1 bus1=633-1'1.1 kV=2.4  kVA=3  irrad=0.8  Pmpp=500  temperature=25 PF=1  effcurve=Myeff  P-TCurve=MyPvsT  Daily=MyIrrad  TDaily=MyTemp
New PVSystem.pB2-633-a.1 phases=1 bus1=633-1'2.1 kV=2.4  kVA=3  irrad=0.8  Pmpp=500  temperature=25 PF=1  effcurve=Myeff  P-TCurve=MyPvsT  Daily=MyIrrad  TDaily=MyTemp
New PVSystem.pB3-633-a.1 phases=1 bus1=633-1'3.1 kV=2.4  kVA=500  irrad=0.8  Pmpp=500  temperature=25 PF=1  effcurve=Myeff  P-TCurve=MyPvsT  Daily=MyIrrad  TDaily=MyTemp 
New PVSystem.pB4-633-a.1 phases=1 bus1=633-1'4.1 kV=2.4  kVA=500  irrad=0.8  Pmpp=500  temperature=25 PF=1  effcurve=Myeff  P-TCurve=MyPvsT  Daily=MyIrrad  TDaily=MyTemp   

// Load for secondary of 633-a-2 (B stands for building)
New Load.B1-633-a.2 Bus1=633-2'1.1    Phases=1 Conn=Wye  Model=1 kV=2.4  kW=6    kvar=0 
New Load.B2-633-a.2 Bus1=633-2'2.1    Phases=1 Conn=Wye  Model=1 kV=2.4  kW=6    kvar=0 
New Load.B3-633-a.2 Bus1=633-2'3.1   Phases=1 Conn=Wye  Model=1 kV=2.4  kW=6    kvar=0 
New Load.B4-633-a.2 Bus1=633-2'4.1   Phases=1 Conn=Wye  Model=1 kV=2.4  kW=6    kvar=0

// pv definition 633-a.2(Define PV for each building above)
New PVSystem.pB1-633-a.2 phases=1 bus1=633-2'1.1 kV=2.4  kVA=500  irrad=0.8  Pmpp=500  temperature=25 PF=1  effcurve=Myeff  P-TCurve=MyPvsT  Daily=MyIrrad  TDaily=MyTemp
New PVSystem.pB2-633-a.2 phases=1 bus1=633-2'2.1 kV=2.4  kVA=500  irrad=0.8  Pmpp=500  temperature=25 PF=1  effcurve=Myeff  P-TCurve=MyPvsT  Daily=MyIrrad  TDaily=MyTemp
New PVSystem.pB3-633-a.2 phases=1 bus1=633-2'3.1 kV=2.4  kVA=500  irrad=0.8  Pmpp=500  temperature=25 PF=1  effcurve=Myeff  P-TCurve=MyPvsT  Daily=MyIrrad  TDaily=MyTemp 
New PVSystem.pB4-633-a.2 phases=1 bus1=633-2'4.1 kV=2.4  kVA=500  irrad=0.8  Pmpp=500  temperature=25 PF=1  effcurve=Myeff  P-TCurve=MyPvsT  Daily=MyIrrad  TDaily=MyTemp   

// Load for secondary of 633-a-3 (B stands for building)
New Load.B1-633-a.3 Bus1=633-3'1.1    Phases=1 Conn=Wye  Model=1 kV=2.4  kW=6    kvar=0 
New Load.B2-633-a.3 Bus1=633-3'2.1    Phases=1 Conn=Wye  Model=1 kV=2.4  kW=6    kvar=0 
New Load.B3-633-a.3 Bus1=633-3'3.1   Phases=1 Conn=Wye  Model=1 kV=2.4  kW=6    kvar=0 
New Load.B4-633-a.3 Bus1=633-3'4.1   Phases=1 Conn=Wye  Model=1 kV=2.4  kW=6    kvar=0

// pv definition 633-a.3(Define PV for each building above)
New PVSystem.pB1-633-a.3 phases=1 bus1=633-3'1.1 kV=2.4  kVA=500  irrad=0.8  Pmpp=500  temperature=25 PF=1  effcurve=Myeff  P-TCurve=MyPvsT  Daily=MyIrrad  TDaily=MyTemp
New PVSystem.pB2-633-a.3 phases=1 bus1=633-3'2.1 kV=2.4  kVA=500  irrad=0.8  Pmpp=500  temperature=25 PF=1  effcurve=Myeff  P-TCurve=MyPvsT  Daily=MyIrrad  TDaily=MyTemp
New PVSystem.pB3-633-a.3 phases=1 bus1=633-3'3.1 kV=2.4  kVA=500  irrad=0.8  Pmpp=500  temperature=25 PF=1  effcurve=Myeff  P-TCurve=MyPvsT  Daily=MyIrrad  TDaily=MyTemp 
New PVSystem.pB4-633-a.3 phases=1 bus1=633-3'4.1 kV=2.4  kVA=500  irrad=0.8  Pmpp=500  temperature=25 PF=1  effcurve=Myeff  P-TCurve=MyPvsT  Daily=MyIrrad  TDaily=MyTemp   

// Load for secondary of 633-a-4 (B stands for building)
New Load.B1-633-a.4 Bus1=633-4'1.1   Phases=1 Conn=Wye  Model=1 kV=2.4  kW=6    kvar=0 
New Load.B2-633-a.4 Bus1=633-4'2.1   Phases=1 Conn=Wye  Model=1 kV=2.4  kW=6    kvar=0 
New Load.B3-633-a.4 Bus1=633-4'3.1   Phases=1 Conn=Wye  Model=1 kV=2.4  kW=6    kvar=0 
New Load.B4-633-a.4 Bus1=633-4'4.1   Phases=1 Conn=Wye  Model=1 kV=2.4  kW=6    kvar=0

// pv definition 633-a-4(Define PV for each building above)
New PVSystem.pB1-633-a.4 phases=1 bus1=633-4'1.1 kV=2.4  kVA=500  irrad=0.8  Pmpp=500  temperature=25 PF=1  effcurve=Myeff  P-TCurve=MyPvsT  Daily=MyIrrad  TDaily=MyTemp
New PVSystem.pB2-633-a.4 phases=1 bus1=633-4'2.1 kV=2.4  kVA=500  irrad=0.8  Pmpp=500  temperature=25 PF=1  effcurve=Myeff  P-TCurve=MyPvsT  Daily=MyIrrad  TDaily=MyTemp
New PVSystem.pB3-633-a.4 phases=1 bus1=633-4'3.1 kV=2.4  kVA=500  irrad=0.8  Pmpp=500  temperature=25 PF=1  effcurve=Myeff  P-TCurve=MyPvsT  Daily=MyIrrad  TDaily=MyTemp 
New PVSystem.pB4-633-a.4 phases=1 bus1=633-4'4.1 kV=2.4  kVA=500  irrad=0.8  Pmpp=500  temperature=25 PF=1  effcurve=Myeff  P-TCurve=MyPvsT  Daily=MyIrrad  TDaily=MyTemp   

// Load for secondary of 633-a-5 (B stands for building)
New Load.B1-633-a.5 Bus1=633-5'1.1    Phases=1 Conn=Wye  Model=1 kV=2.4  kW=6    kvar=0 
New Load.B2-633-a.5 Bus1=633-5'2.1    Phases=1 Conn=Wye  Model=1 kV=2.4  kW=6    kvar=0 
New Load.B3-633-a.5 Bus1=633-5'3.1   Phases=1 Conn=Wye  Model=1 kV=2.4  kW=6    kvar=0 
New Load.B4-633-a.5 Bus1=633-5'4.1   Phases=1 Conn=Wye  Model=1 kV=2.4  kW=6    kvar=0

// pv definition 633-a-5(Define PV for each building above)
New PVSystem.pB1-633-a.5 phases=1 bus1=633-5'1.1 kV=2.4  kVA=500  irrad=0.8  Pmpp=500  temperature=25 PF=1  effcurve=Myeff  P-TCurve=MyPvsT  Daily=MyIrrad  TDaily=MyTemp
New PVSystem.pB2-633-a.5 phases=1 bus1=633-5'2.1 kV=2.4  kVA=500  irrad=0.8  Pmpp=500  temperature=25 PF=1  effcurve=Myeff  P-TCurve=MyPvsT  Daily=MyIrrad  TDaily=MyTemp
New PVSystem.pB3-633-a.5 phases=1 bus1=633-5'3.1 kV=2.4  kVA=500  irrad=0.8  Pmpp=500  temperature=25 PF=1  effcurve=Myeff  P-TCurve=MyPvsT  Daily=MyIrrad  TDaily=MyTemp 
New PVSystem.pB4-633-a.5 phases=1 bus1=633-5'4.1 kV=2.4  kVA=500  irrad=0.8  Pmpp=500  temperature=25 PF=1  effcurve=Myeff  P-TCurve=MyPvsT  Daily=MyIrrad  TDaily=MyTemp   

// Load for secondary of 633-a-6 (B stands for building)
New Load.B1-633-a.6 Bus1=633-6'1.1    Phases=1 Conn=Wye  Model=1 kV=2.4  kW=6    kvar=0 
New Load.B2-633-a.6 Bus1=633-6'2.1    Phases=1 Conn=Wye  Model=1 kV=2.4  kW=6    kvar=0 
New Load.B3-633-a.6 Bus1=633-6'3.1   Phases=1 Conn=Wye  Model=1 kV=2.4  kW=6    kvar=0 
New Load.B4-633-a.6 Bus1=633-6'4.1   Phases=1 Conn=Wye  Model=1 kV=2.4  kW=6    kvar=0

// pv definition 633-a-6 (Define PV for each building above)
New PVSystem.pB1-633-a.6 phases=1 bus1=633-6'1.1 kV=2.4  kVA=500  irrad=0.8  Pmpp=500  temperature=25 PF=1  effcurve=Myeff  P-TCurve=MyPvsT  Daily=MyIrrad  TDaily=MyTemp
New PVSystem.pB2-633-a.6 phases=1 bus1=633-6'2.1 kV=2.4  kVA=500  irrad=0.8  Pmpp=500  temperature=25 PF=1  effcurve=Myeff  P-TCurve=MyPvsT  Daily=MyIrrad  TDaily=MyTemp
New PVSystem.pB3-633-a.6 phases=1 bus1=633-6'3.1 kV=2.4  kVA=500  irrad=0.8  Pmpp=500  temperature=25 PF=1  effcurve=Myeff  P-TCurve=MyPvsT  Daily=MyIrrad  TDaily=MyTemp 
New PVSystem.pB4-633-a.6 phases=1 bus1=633-6'4.1 kV=2.4  kVA=500  irrad=0.8  Pmpp=500  temperature=25 PF=1  effcurve=Myeff  P-TCurve=MyPvsT  Daily=MyIrrad  TDaily=MyTemp 

// Load for secondary of 633-a.7 (B stands for building)
New Load.B1-633-a.7 Bus1=633-7'1.1    Phases=1 Conn=Wye  Model=1 kV=2.4  kW=6    kvar=0 
New Load.B2-633-a.7 Bus1=633-7'2.1    Phases=1 Conn=Wye  Model=1 kV=2.4  kW=6    kvar=0 
New Load.B3-633-a.7 Bus1=633-7'3.1   Phases=1 Conn=Wye  Model=1 kV=2.4  kW=6     kvar=0 
New Load.B4-633-a.7 Bus1=633-7'4.1   Phases=1 Conn=Wye  Model=1 kV=2.4  kW=6     kvar=0 

// pv definition 633-a.7(Define PV for each building above)
New PVSystem.pB1-633-a.7 phases=1 bus1=633-7'1.1 kV=2.4  kVA=500  irrad=0.8  Pmpp=500  temperature=25 PF=1  effcurve=Myeff  P-TCurve=MyPvsT  Daily=MyIrrad  TDaily=MyTemp
New PVSystem.pB2-633-a.7 phases=1 bus1=633-7'2.1 kV=2.4  kVA=500  irrad=0.8  Pmpp=500  temperature=25 PF=1  effcurve=Myeff  P-TCurve=MyPvsT  Daily=MyIrrad  TDaily=MyTemp
New PVSystem.pB3-633-a.7 phases=1 bus1=633-7'3.1 kV=2.4  kVA=500  irrad=0.8  Pmpp=500  temperature=25 PF=1  effcurve=Myeff  P-TCurve=MyPvsT  Daily=MyIrrad  TDaily=MyTemp 
New PVSystem.pB4-633-a.7 phases=1 bus1=633-7'4.1 kV=2.4  kVA=500  irrad=0.8  Pmpp=500  temperature=25 PF=1  effcurve=Myeff  P-TCurve=MyPvsT  Daily=MyIrrad  TDaily=MyTemp 

// Load for secondary of 633-a.8 (B stands for building)
New Load.B1-633-a.8 Bus1=633-8'1.1    Phases=1 Conn=Wye  Model=1 kV=2.4  kW=6    kvar=0 
New Load.B2-633-a.8 Bus1=633-8'2.1    Phases=1 Conn=Wye  Model=1 kV=2.4  kW=6    kvar=0 
New Load.B3-633-a.8 Bus1=633-8'3.1   Phases=1 Conn=Wye  Model=1 kV=2.4  kW=6     kvar=0 
New Load.B4-633-a.8 Bus1=633-8'4.1   Phases=1 Conn=Wye  Model=1 kV=2.4  kW=6     kvar=0 

// pv definition 633-a.8(Define PV for each building above)
New PVSystem.pB1-633-a.8 phases=1 bus1=633-8'1.1 kV=12.48  kVA=500  irrad=0.8  Pmpp=500  temperature=25 PF=1  effcurve=Myeff  P-TCurve=MyPvsT  Daily=MyIrrad  TDaily=MyTemp
New PVSystem.pB2-633-a.8 phases=1 bus1=633-8'2.1 kV=12.48  kVA=500  irrad=0.8  Pmpp=500  temperature=25 PF=1  effcurve=Myeff  P-TCurve=MyPvsT  Daily=MyIrrad  TDaily=MyTemp
New PVSystem.pB3-633-a.8 phases=1 bus1=633-8'3.1 kV=12.48  kVA=500  irrad=0.8  Pmpp=500  temperature=25 PF=1  effcurve=Myeff  P-TCurve=MyPvsT  Daily=MyIrrad  TDaily=MyTemp 
New PVSystem.pB4-633-a.8 phases=1 bus1=633-8'4.1 kV=12.48  kVA=500  irrad=0.8  Pmpp=500  temperature=25 PF=1  effcurve=Myeff  P-TCurve=MyPvsT  Daily=MyIrrad  TDaily=MyTemp   
////////////////////////////////////////////////////////////////

// Load for secondary of 633-b.1 (B stands for building)
New Load.B1-633-b.1 Bus1=633-1'1.2    Phases=1 Conn=Wye  Model=1 kV=2.4  kW=6    kvar=0 
New Load.B2-633-b.1 Bus1=633-1'2.2    Phases=1 Conn=Wye  Model=1 kV=2.4  kW=6    kvar=0 
New Load.B3-633-b.1 Bus1=633-1'3.2   Phases=1 Conn=Wye  Model=1 kV=2.4  kW=6     kvar=0 
New Load.B4-633-b.1 Bus1=633-1'4.2   Phases=1 Conn=Wye  Model=1 kV=2.4  kW=6     kvar=0 

// pv definition 633-b.1(Define PV for each building above)
New PVSystem.pB1-633-b.1 phases=1 bus1=633-1'1.2 kV=2.4  kVA=500  irrad=0.8  Pmpp=500  temperature=25 PF=1  effcurve=Myeff  P-TCurve=MyPvsT  Daily=MyIrrad  TDaily=MyTemp
New PVSystem.pB2-633-b.1 phases=1 bus1=633-1'2.2 kV=2.4  kVA=500  irrad=0.8  Pmpp=500  temperature=25 PF=1  effcurve=Myeff  P-TCurve=MyPvsT  Daily=MyIrrad  TDaily=MyTemp
New PVSystem.pB3-633-b.1 phases=1 bus1=633-1'3.2 kV=2.4  kVA=500  irrad=0.8  Pmpp=500  temperature=25 PF=1  effcurve=Myeff  P-TCurve=MyPvsT  Daily=MyIrrad  TDaily=MyTemp 
New PVSystem.pB4-633-b.1 phases=1 bus1=633-1'4.2 kV=2.4  kVA=500  irrad=0.8  Pmpp=500  temperature=25 PF=1  effcurve=Myeff  P-TCurve=MyPvsT  Daily=MyIrrad  TDaily=MyTemp   

// Load for secondary of 633-b-2 (B stands for building)
New Load.B1-633-b.2 Bus1=633-2'1.2    Phases=1 Conn=Wye  Model=1 kV=2.4  kW=6    kvar=0 
New Load.B2-633-b.2 Bus1=633-2'2.2    Phases=1 Conn=Wye  Model=1 kV=2.4  kW=6    kvar=0 
New Load.B3-633-b.2 Bus1=633-2'3.2   Phases=1 Conn=Wye  Model=1 kV=2.4  kW=6    kvar=0 
New Load.B4-633-b.2 Bus1=633-2'4.2   Phases=1 Conn=Wye  Model=1 kV=2.4  kW=6    kvar=0

// pv definition 633-b.2(Define PV for each building above)
New PVSystem.p.B1-633-b.2 phases=1 bus1=633-2'1.2 kV=2.4  kVA=500  irrad=0.8  Pmpp=500  temperature=25 PF=1  effcurve=Myeff  P-TCurve=MyPvsT  Daily=MyIrrad  TDaily=MyTemp
New PVSystem.p.B2-633-b.2 phases=1 bus1=633-2'2.2 kV=2.4  kVA=500  irrad=0.8  Pmpp=500  temperature=25 PF=1  effcurve=Myeff  P-TCurve=MyPvsT  Daily=MyIrrad  TDaily=MyTemp
New PVSystem.p.B3-633-b.2 phases=1 bus1=633-2'3.2 kV=2.4  kVA=500  irrad=0.8  Pmpp=500  temperature=25 PF=1  effcurve=Myeff  P-TCurve=MyPvsT  Daily=MyIrrad  TDaily=MyTemp 
New PVSystem.p.B4-633-b.2 phases=1 bus1=633-2'4.2 kV=2.4  kVA=500  irrad=0.8  Pmpp=500  temperature=25 PF=1  effcurve=Myeff  P-TCurve=MyPvsT  Daily=MyIrrad  TDaily=MyTemp   

// Load for secondary of 633-b-3 (B stands for building)
New Load.B1-633-b.3 Bus1=633-3'1.2    Phases=1 Conn=Wye  Model=1 kV=2.4  kW=6    kvar=0 
New Load.B2-633-b.3 Bus1=633-3'2.2    Phases=1 Conn=Wye  Model=1 kV=2.4  kW=6    kvar=0 
New Load.B3-633-b.3 Bus1=633-3'3.2   Phases=1 Conn=Wye  Model=1 kV=2.4  kW=6    kvar=0 
New Load.B4-633-b.3 Bus1=633-3'4.2   Phases=1 Conn=Wye  Model=1 kV=2.4  kW=6    kvar=0

// pv definition 633-b.3(Define PV for each building above)
New PVSystem.pB1-633-b.3 phases=1 bus1=633-3'1.2 kV=2.4  kVA=500  irrad=0.8  Pmpp=500  temperature=25 PF=1  effcurve=Myeff  P-TCurve=MyPvsT  Daily=MyIrrad  TDaily=MyTemp
New PVSystem.pB2-633-b.3 phases=1 bus1=633-3'2.2 kV=2.4  kVA=500  irrad=0.8  Pmpp=500  temperature=25 PF=1  effcurve=Myeff  P-TCurve=MyPvsT  Daily=MyIrrad  TDaily=MyTemp
New PVSystem.pB3-633-b.3 phases=1 bus1=633-3'3.2 kV=2.4  kVA=500  irrad=0.8  Pmpp=500  temperature=25 PF=1  effcurve=Myeff  P-TCurve=MyPvsT  Daily=MyIrrad  TDaily=MyTemp 
New PVSystem.pB4-633-b.3 phases=1 bus1=633-3'4.2 kV=2.4  kVA=500  irrad=0.8  Pmpp=500  temperature=25 PF=1  effcurve=Myeff  P-TCurve=MyPvsT  Daily=MyIrrad  TDaily=MyTemp   

// Load for secondary of 633-b-4 (B stands for building)
New Load.B1-633-b.4 Bus1=633-4'1.2   Phases=1 Conn=Wye  Model=1 kV=2.4  kW=6    kvar=0 
New Load.B2-633-b.4 Bus1=633-4'2.2   Phases=1 Conn=Wye  Model=1 kV=2.4  kW=6    kvar=0 
New Load.B3-633-b.4 Bus1=633-4'3.2   Phases=1 Conn=Wye  Model=1 kV=2.4  kW=6    kvar=0 
New Load.B4-633-b.4 Bus1=633-4'4.2   Phases=1 Conn=Wye  Model=1 kV=2.4  kW=6    kvar=0

// pv definition 633-b-4(Define PV for each building above)
New PVSystem.pB1-633-b.4 phases=1 bus1=633-4'1.2 kV=2.4  kVA=500  irrad=0.8  Pmpp=500  temperature=25 PF=1  effcurve=Myeff  P-TCurve=MyPvsT  Daily=MyIrrad  TDaily=MyTemp
New PVSystem.pB2-633-b.4 phases=1 bus1=633-4'2.2 kV=2.4  kVA=500  irrad=0.8  Pmpp=500  temperature=25 PF=1  effcurve=Myeff  P-TCurve=MyPvsT  Daily=MyIrrad  TDaily=MyTemp
New PVSystem.pB3-633-b.4 phases=1 bus1=633-4'3.2 kV=2.4  kVA=500  irrad=0.8  Pmpp=500  temperature=25 PF=1  effcurve=Myeff  P-TCurve=MyPvsT  Daily=MyIrrad  TDaily=MyTemp 
New PVSystem.pB4-633-b.4 phases=1 bus1=633-4'4.2 kV=2.4  kVA=500  irrad=0.8  Pmpp=500  temperature=25 PF=1  effcurve=Myeff  P-TCurve=MyPvsT  Daily=MyIrrad  TDaily=MyTemp   

// Load for secondary of 633-b-5 (B stands for building)
New Load.B1-633-b.5 Bus1=633-5'1.2    Phases=1 Conn=Wye  Model=1 kV=2.4  kW=6    kvar=0 
New Load.B2-633-b.5 Bus1=633-5'2.2    Phases=1 Conn=Wye  Model=1 kV=2.4  kW=6    kvar=0 
New Load.B3-633-b.5 Bus1=633-5'3.2   Phases=1 Conn=Wye  Model=1 kV=2.4  kW=6    kvar=0 
New Load.B4-633-b.5 Bus1=633-5'4.2   Phases=1 Conn=Wye  Model=1 kV=2.4  kW=6    kvar=0

// pv definition 633-b-5(Define PV for each building above)
New PVSystem.pB1-633-b.5 phases=1 bus1=633-5'1.2 kV=2.4  kVA=500  irrad=0.8  Pmpp=500  temperature=25 PF=1  effcurve=Myeff  P-TCurve=MyPvsT  Daily=MyIrrad  TDaily=MyTemp
New PVSystem.pB2-633-b.5 phases=1 bus1=633-5'2.2 kV=2.4  kVA=500  irrad=0.8  Pmpp=500  temperature=25 PF=1  effcurve=Myeff  P-TCurve=MyPvsT  Daily=MyIrrad  TDaily=MyTemp
New PVSystem.pB3-633-b.5 phases=1 bus1=633-5'3.2 kV=2.4  kVA=500  irrad=0.8  Pmpp=500  temperature=25 PF=1  effcurve=Myeff  P-TCurve=MyPvsT  Daily=MyIrrad  TDaily=MyTemp 
New PVSystem.pB4-633-b.5 phases=1 bus1=633-5'4.2 kV=2.4  kVA=500  irrad=0.8  Pmpp=500  temperature=25 PF=1  effcurve=Myeff  P-TCurve=MyPvsT  Daily=MyIrrad  TDaily=MyTemp   

// Load for secondary of 633-b-6 (B stands for building)
New Load.B1-633-b.6 Bus1=633-6'1.2    Phases=1 Conn=Wye  Model=1 kV=2.4  kW=6    kvar=0 
New Load.B2-633-b.6 Bus1=633-6'2.2    Phases=1 Conn=Wye  Model=1 kV=2.4  kW=6    kvar=0 
New Load.B3-633-b.6 Bus1=633-6'3.2   Phases=1 Conn=Wye  Model=1 kV=2.4  kW=6    kvar=0 
New Load.B4-633-b.6 Bus1=633-6'4.2   Phases=1 Conn=Wye  Model=1 kV=2.4  kW=6    kvar=0

// pv definition 633-b-6 (Define PV for each building above)
New PVSystem.pB1-633-b.6 phases=1 bus1=633-6'1.2 kV=2.4  kVA=500  irrad=0.8  Pmpp=500  temperature=25 PF=1  effcurve=Myeff  P-TCurve=MyPvsT  Daily=MyIrrad  TDaily=MyTemp
New PVSystem.pB2-633-b.6 phases=1 bus1=633-6'2.2 kV=2.4  kVA=500  irrad=0.8  Pmpp=500  temperature=25 PF=1  effcurve=Myeff  P-TCurve=MyPvsT  Daily=MyIrrad  TDaily=MyTemp
New PVSystem.pB3-633-b.6 phases=1 bus1=633-6'3.2 kV=2.4  kVA=500  irrad=0.8  Pmpp=500  temperature=25 PF=1  effcurve=Myeff  P-TCurve=MyPvsT  Daily=MyIrrad  TDaily=MyTemp 
New PVSystem.pB4-633-b.6 phases=1 bus1=633-6'4.2 kV=2.4  kVA=500  irrad=0.8  Pmpp=500  temperature=25 PF=1  effcurve=Myeff  P-TCurve=MyPvsT  Daily=MyIrrad  TDaily=MyTemp 

// Load for secondary of 633-b.7 (B stands for building)
New Load.B1-633-b.7 Bus1=633-7'1.2    Phases=1 Conn=Wye  Model=1 kV=2.4  kW=6    kvar=0 
New Load.B2-633-b.7 Bus1=633-7'2.2    Phases=1 Conn=Wye  Model=1 kV=2.4  kW=6    kvar=0 
New Load.B3-633-b.7 Bus1=633-7'3.2   Phases=1 Conn=Wye  Model=1 kV=2.4  kW=6     kvar=0 
New Load.B4-633-b.7 Bus1=633-7'4.2   Phases=1 Conn=Wye  Model=1 kV=2.4  kW=6     kvar=0 

// pv definition 633-b.7(Define PV for each building above)
New PVSystem.pB1-633-b.7 phases=1 bus1=633-7'1.2 kV=2.4  kVA=500  irrad=0.8  Pmpp=500  temperature=25 PF=1  effcurve=Myeff  P-TCurve=MyPvsT  Daily=MyIrrad  TDaily=MyTemp
New PVSystem.pB2-633-b.7 phases=1 bus1=633-7'2.2 kV=2.4  kVA=500  irrad=0.8  Pmpp=500  temperature=25 PF=1  effcurve=Myeff  P-TCurve=MyPvsT  Daily=MyIrrad  TDaily=MyTemp
New PVSystem.pB3-633-b.7 phases=1 bus1=633-7'3.2 kV=2.4  kVA=500  irrad=0.8  Pmpp=500  temperature=25 PF=1  effcurve=Myeff  P-TCurve=MyPvsT  Daily=MyIrrad  TDaily=MyTemp 
New PVSystem.pB4-633-b.7 phases=1 bus1=633-7'4.2 kV=2.4  kVA=500  irrad=0.8  Pmpp=500  temperature=25 PF=1  effcurve=Myeff  P-TCurve=MyPvsT  Daily=MyIrrad  TDaily=MyTemp 

// Load for secondary of 633-b.8 (B stands for building)
New Load.B1-633-b.8 Bus1=633-8'1.2    Phases=1 Conn=Wye  Model=1 kV=2.4  kW=6    kvar=0 
New Load.B2-633-b.8 Bus1=633-8'2.2    Phases=1 Conn=Wye  Model=1 kV=2.4  kW=6    kvar=0 
New Load.B3-633-b.8 Bus1=633-8'3.2   Phases=1 Conn=Wye  Model=1 kV=2.4  kW=6     kvar=0 
New Load.B4-633-b.8 Bus1=633-8'4.2   Phases=1 Conn=Wye  Model=1 kV=2.4  kW=6     kvar=0 

// pv definition 633-b.8(Define PV for each building above)
New PVSystem.pB1-633-b.8 phases=1 bus1=633-8'1.2 kV=12.48  kVA=500  irrad=0.8  Pmpp=500  temperature=25 PF=1  effcurve=Myeff  P-TCurve=MyPvsT  Daily=MyIrrad  TDaily=MyTemp
New PVSystem.pB2-633-b.8 phases=1 bus1=633-8'2.2 kV=12.48  kVA=500  irrad=0.8  Pmpp=500  temperature=25 PF=1  effcurve=Myeff  P-TCurve=MyPvsT  Daily=MyIrrad  TDaily=MyTemp
New PVSystem.pB3-633-b.8 phases=1 bus1=633-8'3.2 kV=12.48  kVA=500  irrad=0.8  Pmpp=500  temperature=25 PF=1  effcurve=Myeff  P-TCurve=MyPvsT  Daily=MyIrrad  TDaily=MyTemp 
New PVSystem.pB4-633-b.8 phases=1 bus1=633-8'4.2 kV=12.48  kVA=500  irrad=0.8  Pmpp=500  temperature=25 PF=1  effcurve=Myeff  P-TCurve=MyPvsT  Daily=MyIrrad  TDaily=MyTemp 
/////////////////////////////////////////////////////////////////////
// Load for secondary of 633-c.1 (B stands for building)
New Load.B1-633-c.1 Bus1=633-1'1.3    Phases=1 Conn=Wye  Model=1 kV=2.4  kW=6    kvar=0 
New Load.B2-633-c.1 Bus1=633-1'2.3    Phases=1 Conn=Wye  Model=1 kV=2.4  kW=6    kvar=0 
New Load.B3-633-c.1 Bus1=633-1'3.3   Phases=1 Conn=Wye  Model=1 kV=2.4  kW=6     kvar=0 
New Load.B4-633-c.1 Bus1=633-1'4.3   Phases=1 Conn=Wye  Model=1 kV=2.4  kW=6     kvar=0 

// pv definition 633-c.1(Define PV for each building above)
New PVSystem.pB1-633-c.1 phases=1 bus1=633-1'1.3 kV=2.4  kVA=500  irrad=0.8  Pmpp=500  temperature=25 PF=1  effcurve=Myeff  P-TCurve=MyPvsT  Daily=MyIrrad  TDaily=MyTemp
...